%chk=Bod.chk
%mem=32GB
%nprocshared=32
# opt freq wb97xd/def2svp

Bod

0 1
C          0.73071        1.38886       -0.71085
C         -0.69827        1.00853       -1.19434
C         -1.27053       -0.11227       -0.26825
C          0.51683        1.94732        0.69346
C         -0.05407        1.07243        1.54570
C         -0.31754       -0.30882        0.94458
C          0.98991       -0.78868        0.31619
C          1.52147        0.08449       -0.56224
H          1.22475        2.10211       -1.37074
H         -1.35795        1.88659       -1.13927
H         -0.69719        0.67848       -2.23876
H         -2.28800        0.13921        0.05197
H         -1.34215       -1.04630       -0.84541
H          0.79040        2.96047        0.94990
H         -0.29113        1.30496        2.57618
H         -0.70935       -1.01595        1.67917
H          1.41236       -1.75871        0.54712
H          2.42664       -0.10159       -1.12430
