%chk=Bod.chk
%mem=16GB
%nprocshared=8
# opt freq wb97xd/def2svp

Bod

0 1
C          0.51727        1.23646       -0.97227
C         -0.88213        0.58934       -1.17950
C         -1.15994       -0.42117       -0.01714
C          0.43527        1.92852        0.38770
C          0.16367        1.09268        1.41067
C          0.01673       -0.37101        0.99764
C          1.25541       -0.74960        0.18795
C          1.50908        0.08237       -0.84405
H          0.78447        1.92962       -1.77175
H         -0.93735        0.07267       -2.14498
H         -1.66319        1.36119       -1.18461
H         -2.11089       -0.17612        0.47095
H         -1.26434       -1.43227       -0.43193
H          0.56154        2.99728        0.49271
H          0.04663        1.41384        2.43686
H         -0.13423       -1.03142        1.85501
H          1.84772       -1.62445        0.42169
H          2.33069       -0.04652       -1.53510
